/*--------------------------------*- C++ -*----------------------------------*\
| =========                 |                                                 |
| \\      /  F ield         | OpenFOAM: The Open Source CFD Toolbox           |
|  \\    /   O peration     | Version:  2.1.0                                 |
|   \\  /    A nd           | Web:      www.OpenFOAM.org                      |
|    \\/     M anipulation  |                                                 |
\*---------------------------------------------------------------------------*/
FoamFile
{
    version     2.0;
    format      ascii;
    class       dictionary;
    object      laplacianSmoothDict;
}

// * * * * * * * * * * * * * * * * * * * * * * * * * * * * * * * * * * * * * //

#include "../parameters"

// Prevent moving points in the boundary normal direction, for points a distance from the boundaries.
// Not working properly. Instead, refineWallLayer is used after smoothing.
preserveBoundaryLayer 0; //#eval {10*$wall_cell_size}; 
iters 15;
smoothFactor 1;

constrainedPoints
(
  {
    set wallSmoothPoints;
    constraintType sphere;
    value $R;
  }
  {
    set bottomSmoothPoints;
    constraintType yconst;
    value #eval {$R - $H_G};
  }
  {
    set fixedPoints;
    constraintType fixed;
  }
);


// ************************************************************************* //
